
#!/bin/bash
#SBATCH --job-name=project-name # Change to your job name
#SBATCH --partition=compute1
#SBATCH --ntasks=1
#SBATCH --nodes=1
#SBATCH --time=02:00:00

module load ls-dyna
ls-dyna_smp_d_r1010_x64_redhat5_ifort160 i=i.k ncpu=40
